Output_case1/output_current_1440.csv
# Output_case1\output_current_1440.csv run at 2000-01-02 00:00:00 EST on 907 links
link_name,currA_mag,currA_angle,currB_mag,currB_angle,currC_mag,currC_angle
Source_Impedance,0.515783,-0.230079,0.516908,3.784915,0.436780,1.775085
TR1,0.515783,-0.230079,0.516908,3.784915,0.436780,1.775085
LINE1,11.524781,-0.841184,15.649325,3.347770,11.579055,1.252475
LINE2,11.524781,-0.841184,15.649325,3.347770,11.579055,1.252475
LINE3,11.524781,-0.841184,15.649325,3.347770,11.579055,1.252475
LINE4,11.524781,-0.841184,15.649325,3.347770,11.579055,1.252475
LINE5,11.524781,-0.841184,15.649325,3.347770,11.579055,1.252475
LINE6,11.524781,-0.841184,15.649325,3.347770,11.579055,1.252475
LINE7,11.524781,-0.841184,15.649325,3.347770,11.579055,1.252475
LINE8,11.524781,-0.841184,15.649325,3.347770,11.579055,1.252475
LINE9,11.524781,-0.841184,15.649325,3.347770,11.579055,1.252475
LINE10,11.524781,-0.841184,15.649325,3.347770,11.579055,1.252475
LINE11,11.524781,-0.841184,15.649325,3.347770,11.579055,1.252475
LINE12,11.524781,-0.841184,15.649325,3.347770,11.579055,1.252475
LINE13,11.524781,-0.841184,15.649325,3.347770,11.579055,1.252475
LINE14,11.524781,-0.841184,15.649325,3.347770,11.579055,1.252475
LINE15,0.000000,-0.118409,0.000000,3.116661,0.000000,4.663633
LINE16,11.524781,-0.841184,15.649325,3.347770,11.579055,1.252475
LINE17,0.000000,-0.190081,0.000000,3.075018,0.000000,4.615317
LINE18,11.524781,-0.841184,15.649325,3.347770,11.579055,1.252475
LINE19,0.000000,-0.488580,0.000000,3.016992,0.000000,4.664024
LINE20,11.524781,-0.841184,15.649325,3.347770,11.579055,1.252475
LINE21,0.000000,3.580308,0.000000,3.016992,0.000000,1.719868
LINE22,11.524781,-0.841184,15.649325,3.347770,11.579055,1.252475
LINE23,0.000000,-0.024932,0.000000,2.964011,0.000000,3.116661
LINE24,11.524781,-0.841184,15.649325,3.347770,11.579055,1.252475
LINE25,0.000000,-0.024932,0.000000,3.193433,0.000000,1.662520
LINE26,1.599709,-0.841478,0.000000,3.362150,0.000000,1.771848
LINE27,9.925073,-0.841136,15.649325,3.347770,11.579055,1.252475
LINE28,0.000000,0.140217,0.000000,3.083340,0.000000,4.573693
LINE29,0.150359,-0.841488,0.000000,3.985848,0.000000,1.619276
LINE30,1.449350,-0.841478,0.000000,3.369219,0.000000,1.768716
LINE31,9.925073,-0.841136,15.649325,3.347770,11.579055,1.252475
LINE32,0.000000,-0.149287,0.000000,3.158303,0.000000,2.039515
LINE33,0.150359,-0.841488,0.000000,-0.366241,0.000000,1.721224
LINE34,1.449350,-0.841478,0.000000,3.144586,0.000000,1.999500
LINE35,0.000000,-0.272301,0.472362,3.347239,0.000000,-1.426353
LINE36,9.925073,-0.841136,15.176963,3.347787,11.579055,1.252475
LINE37,0.000000,-0.080430,0.000000,3.170662,0.000000,3.116661
LINE38,1.449350,-0.841478,0.000000,3.448039,0.000000,1.627142
LINE39,0.000000,-0.093285,0.234091,3.347239,0.000000,-1.468902
LINE40,0.000000,2.554908,0.238271,3.347239,0.000000,-0.949837
LINE41,9.925073,-0.841136,15.176963,3.347787,11.579055,1.252475
LINE42,0.000000,-0.318955,0.000000,4.189218,0.000000,2.163814
LINE43,0.000000,0.220047,0.000000,3.179080,0.000000,3.116661
LINE44,1.449350,-0.841478,0.000000,4.415835,0.000000,2.886665
LINE45,0.000000,0.461219,0.234091,3.347239,0.000000,-1.536787
LINE46,0.000000,0.733602,0.238271,3.347239,0.000000,2.347725
LINE47,9.925073,-0.841136,15.176963,3.347787,11.579055,1.252475
LINE48,0.000000,-0.048413,0.000000,4.048805,0.000000,2.210054
LINE49,0.000000,1.545864,0.000000,3.241016,0.000000,4.612403
LINE50,1.449350,-0.841478,0.000000,-0.562196,0.000000,-1.549609
LINE51,0.000000,1.383915,0.234091,3.347239,0.000000,-1.541921
LINE52,9.925073,-0.841136,15.176963,3.347787,11.579055,1.252475
LINE53,0.000000,4.654545,0.000000,4.573540,0.000000,4.459560
LINE54,0.000000,-0.045237,0.000000,4.092175,0.000000,2.368075
LINE55,0.000000,1.545864,0.000000,3.322056,0.000000,4.648902
LINE56,1.449350,-0.841478,0.000000,3.654658,0.000000,4.621097
LINE57,0.000000,0.201181,0.234091,3.347239,0.000000,-1.526623
LINE58,9.925073,-0.841136,15.176963,3.347787,11.579055,1.252475
LINE59,0.000000,4.416790,0.000000,0.152381,0.000000,4.464422
LINE60,0.000000,-0.139767,0.000000,3.980743,0.000000,2.317616
LINE61,0.000000,1.545864,0.000000,3.387608,0.000000,4.656542
LINE62,1.449350,-0.841478,0.000000,2.364998,0.000000,4.589581
LINE63,0.000000,-0.195444,0.234091,3.347239,0.000000,-1.533470
LINE64,7.760594,-0.841097,15.176963,3.347787,11.579055,1.252475
LINE65,2.164479,-0.841279,0.000000,0.570174,0.000000,1.526329
LINE66,0.000000,3.917037,0.000000,4.416190,0.000000,-1.400645
LINE67,0.000000,-0.302040,0.000000,4.012393,0.000000,2.094543
LINE68,0.000000,2.220605,0.000000,3.327754,0.000000,4.672810
LINE69,1.449350,-0.841478,0.000000,1.056149,0.000000,1.700742
LINE70,0.000000,3.298669,0.234091,3.347239,0.000000,4.675168
LINE71,7.760594,-0.841097,15.176963,3.347787,11.579055,1.252475
LINE72,0.204742,-0.841286,0.000000,0.597614,0.000000,-1.290590
LINE73,1.959737,-0.841278,0.000000,0.252070,0.000000,-1.511995
LINE74,0.000000,-0.777620,0.000000,4.652658,0.000000,1.158208
LINE75,0.000000,-0.153680,0.000000,3.979641,0.000000,2.145715
LINE76,0.000000,2.331263,0.000000,3.281809,0.000000,4.674545
LINE77,0.000000,2.998647,0.234091,3.347239,0.000000,1.466561
LINE78,7.760594,-0.841097,15.176963,3.347787,11.579055,1.252475
LINE79,0.000000,3.390896,0.000000,-0.683192,0.000000,4.683505
LINE80,0.000000,-0.185369,0.000000,3.983992,0.000000,2.110316
LINE81,0.000000,2.243767,0.000000,3.255300,0.000000,4.668239
LINE82,0.000000,3.181034,0.234091,3.347239,0.000000,4.524193
LINE83,7.760594,-0.841097,15.176963,3.347787,11.579055,1.252475
LINE84,0.000000,2.621294,0.000000,0.112708,0.000000,4.530207
LINE85,0.000000,-0.157968,0.000000,4.016278,0.000000,2.115044
LINE86,0.000000,2.234789,0.000000,3.223396,0.000000,4.648512
LINE87,7.760594,-0.841097,15.176963,3.347787,11.579055,1.252475
LINE88,0.000000,1.761517,0.000000,3.685236,0.000000,2.491944
LINE89,0.000000,-0.139567,0.000000,3.990521,0.000000,2.073239
LINE90,0.000000,1.867615,0.000000,3.172159,0.000000,4.661340
LINE91,7.760594,-0.841097,15.176963,3.347787,11.579055,1.252475
LINE92,0.000000,0.324139,0.000000,3.707541,0.000000,2.179465
LINE93,0.000000,2.331263,0.000000,3.116661,0.000000,4.661096
LINE94,7.760594,-0.841097,15.176963,3.347787,11.579055,1.252475
LINE95,0.000000,0.627149,0.000000,3.607899,0.000000,2.138633
LINE96,0.000000,2.653013,0.000000,2.871682,0.000000,4.692828
LINE97,7.760594,-0.841097,15.176963,3.347787,11.579055,1.252475
LINE98,0.000000,0.681251,0.000000,3.887686,0.000000,2.843478
LINE99,0.000000,2.653013,0.000000,1.545864,0.000000,-1.565464
LINE100,7.760594,-0.841097,15.176963,3.347787,11.579055,1.252475
LINE101,0.000000,4.024121,0.000000,3.947541,0.000000,2.693209
LINE102,0.000000,0.000000,0.000000,0.000000,0.000000,-0.024932
LINE103,0.217277,-0.841246,1.284828,3.347567,0.443215,1.252520
LINE104,7.543317,-0.841092,13.892135,3.347807,11.135841,1.252473
LINE105,0.000000,4.467941,0.000000,3.755348,0.000000,2.729979
LINE106,0.217277,-0.841246,1.284828,3.347567,0.443215,1.252520
LINE107,7.543317,-0.841092,13.892135,3.347807,11.135841,1.252473
LINE108,0.000000,4.060492,0.000000,4.538509,0.000000,2.712862
LINE109,0.217277,-0.841246,1.284828,3.347567,0.443215,1.252520
LINE110,7.543317,-0.841092,13.892135,3.347807,11.135841,1.252473
LINE111,0.000000,4.168798,0.000000,4.602468,0.000000,2.764279
LINE112,0.217277,-0.841246,1.284828,3.347567,0.443215,1.252520
LINE113,7.543317,-0.841092,13.892135,3.347807,11.135841,1.252473
LINE114,0.000000,4.164167,0.000000,4.624631,0.000000,2.772817
LINE115,0.217277,-0.841246,1.284828,3.347567,0.443215,1.252520
LINE116,0.213108,-0.841221,4.551936,3.347737,2.752350,1.252491
LINE117,7.330209,-0.841089,9.340199,3.347841,8.383491,1.252467
LINE118,0.000000,4.210563,0.000000,-1.568413,0.000000,2.745205
LINE119,0.217277,-0.841246,1.284828,3.347567,0.443215,1.252520
LINE120,0.000000,2.871682,0.000000,0.487458,0.000000,-1.558690
LINE121,0.213108,-0.841221,4.551936,3.347737,2.752350,1.252491
LINE122,7.330209,-0.841089,9.340199,3.347841,8.383491,1.252467
LINE123,0.000000,4.181200,0.000000,4.662955,0.000000,2.741280
LINE124,0.217277,-0.841246,1.284828,3.347567,0.443215,1.252520
LINE125,0.000000,2.757890,0.000000,0.379960,0.000000,-1.555850
LINE126,0.213108,-0.841221,4.551936,3.347737,2.752350,1.252491
LINE127,7.330209,-0.841089,9.340199,3.347841,8.383491,1.252467
LINE128,0.000000,4.139336,0.000000,4.629672,0.000000,2.729681
LINE129,0.217277,-0.841246,1.284828,3.347567,0.443215,1.252520
LINE130,0.000000,1.545864,0.000000,0.186161,0.000000,-1.563415
LINE131,0.213108,-0.841221,0.000000,-1.001493,0.000000,1.369134
LINE132,0.000000,-1.522170,4.551936,3.347737,2.752350,1.252491
LINE133,7.330209,-0.841089,9.340199,3.347841,8.383491,1.252467
LINE134,0.000000,3.982692,0.000000,-1.532082,0.000000,2.743721
LINE135,0.217277,-0.841246,1.284828,3.347567,0.443215,1.252520
LINE136,0.000000,-0.024932,0.000000,0.123958,0.000000,-1.561481
LINE137,0.213108,-0.841221,0.000000,-1.061394,0.000000,1.395800
LINE138,0.000000,-1.523908,4.551936,3.347737,2.752350,1.252491
LINE139,7.330209,-0.841089,9.340199,3.347841,8.383491,1.252467
LINE140,0.000000,3.960171,0.000000,-1.405781,0.000000,2.743353
LINE141,0.217277,-0.841246,1.284828,3.347567,0.443215,1.252520
LINE142,0.000000,0.140217,0.000000,0.140217,0.000000,-1.562732
LINE143,0.213108,-0.841221,0.000000,-1.268703,0.000000,1.386176
LINE144,0.000000,-1.529586,4.551936,3.347737,2.752350,1.252491
LINE145,7.330209,-0.841089,9.340199,3.347841,8.383491,1.252467
LINE146,0.000000,4.103253,0.000000,-1.263279,0.000000,2.746681
LINE147,0.217277,-0.841246,1.284828,3.347567,0.443215,1.252520
LINE148,0.000000,0.140217,0.000000,0.123958,0.000000,-1.564570
LINE149,0.213108,-0.841221,0.000000,-1.292441,0.000000,1.361691
LINE150,0.000000,-1.513745,0.000000,3.314723,2.752350,1.252491
LINE151,0.000000,2.536398,4.551936,3.347737,0.000000,1.558037
LINE152,7.330209,-0.841089,9.340199,3.347841,8.383491,1.252467
LINE153,0.000000,4.432118,0.000000,-1.381691,0.000000,3.349055
LINE154,0.217277,-0.841246,1.284828,3.347567,0.443215,1.252520
LINE155,0.000000,-0.108073,0.000000,0.140217,0.000000,-1.562183
LINE156,0.213108,-0.841221,0.000000,-1.105680,0.000000,1.334972
LINE157,0.000000,-1.512219,0.000000,3.332896,2.752350,1.252491
LINE158,0.000000,2.511963,4.551936,3.347737,0.000000,1.560918
LINE159,7.330209,-0.841089,9.340199,3.347841,8.383491,1.252467
LINE160,0.000000,4.038760,0.000000,-1.375760,0.000000,3.033417
LINE161,0.000000,1.972783,0.878883,3.347571,0.000000,4.665499
LINE162,0.217277,-0.841246,0.405946,3.347559,0.443215,1.252520
LINE163,0.000000,-0.024932,0.000000,0.369859,0.000000,-1.559936
LINE164,0.213108,-0.841221,0.000000,-1.022149,0.000000,1.367889
LINE165,0.000000,-1.505124,0.000000,3.351150,2.752350,1.252491
LINE166,0.000000,3.012358,4.551936,3.347737,0.000000,1.574552
LINE167,7.330209,-0.841089,9.340199,3.347841,8.383491,1.252467
LINE168,0.000000,2.266610,0.000000,-0.844680,0.000000,4.250462
LINE169,0.000000,0.820433,0.878883,3.347571,0.000000,4.416311
LINE170,0.217277,-0.841246,0.405946,3.347559,0.443215,1.252520
LINE171,0.000000,-0.190081,0.000000,0.515488,0.000000,-1.553923
LINE172,0.213108,-0.841221,0.000000,-0.829336,0.000000,1.262791
LINE173,0.000000,-1.435766,0.000000,3.030483,0.000000,3.969479
LINE174,0.000000,3.776071,0.000000,-0.656249,2.752350,1.252491
LINE175,0.000000,2.575833,4.551936,3.347737,0.000000,1.574268
LINE176,7.330209,-0.841089,9.340199,3.347841,8.383491,1.252467
LINE177,0.000000,3.357617,0.878883,3.347571,0.000000,2.851151
LINE178,0.217277,-0.841246,0.405946,3.347559,0.000000,3.368448
LINE179,0.000000,-1.002807,0.000000,-0.971692,0.443215,1.252520
LINE180,0.000000,-0.024932,0.000000,0.074737,0.000000,-1.541744
LINE181,0.213108,-0.841221,0.000000,-0.560302,0.000000,1.339564
LINE182,0.000000,-1.408233,0.000000,3.100400,0.000000,3.887155
LINE183,0.000000,3.812080,0.000000,-0.658286,2.752350,1.252491
LINE184,0.000000,2.580999,4.551936,3.347737,0.000000,1.692113
LINE185,7.330209,-0.841089,9.340199,3.347841,8.383491,1.252467
LINE186,0.217277,-0.841246,0.405946,3.347559,0.000000,3.846522
LINE187,0.000000,-1.020675,0.000000,-0.952627,0.443215,1.252520
LINE188,0.000000,1.545864,0.000000,0.172464,0.000000,-1.546939
LINE189,0.213108,-0.841221,0.000000,-0.487242,0.000000,1.393872
LINE190,0.000000,1.755759,0.000000,0.471361,0.000000,4.502060
LINE191,0.000000,-1.341893,0.000000,3.532700,0.000000,3.538377
LINE192,0.000000,3.774848,0.000000,-0.602603,2.752350,1.252491
LINE193,0.000000,2.726577,4.551936,3.347737,0.000000,1.511834
LINE194,7.330209,-0.841089,9.340199,3.347841,8.383491,1.252467
LINE195,0.217277,-0.841246,0.405946,3.347559,0.000000,4.039126
LINE196,0.000000,2.686293,0.000000,0.156820,0.221607,1.252520
LINE197,0.000000,-0.985216,0.000000,-1.041684,0.221607,1.252520
LINE198,0.000000,1.545864,0.000000,0.760466,0.000000,-0.024932
LINE199,0.213108,-0.841221,0.000000,-0.559079,0.000000,1.418066
LINE200,0.000000,-1.088545,0.000000,1.996300,0.000000,0.789988
LINE201,0.000000,-1.465630,0.000000,1.793798,0.000000,2.627226
LINE202,0.000000,3.595663,0.000000,-0.525617,2.752350,1.252491
LINE203,0.000000,2.851100,4.551936,3.347737,0.000000,1.384374
LINE204,7.330209,-0.841089,9.340199,3.347841,8.383491,1.252467
LINE205,0.217277,-0.841246,0.000000,4.160689,0.000000,4.679949
LINE206,0.000000,1.246599,0.405946,3.347559,0.000000,3.891854
LINE207,0.000000,4.096584,0.000000,1.525293,0.221607,1.252520
LINE208,0.000000,-1.067868,0.000000,-0.204734,0.221607,1.252520
LINE209,0.000000,2.331263,0.000000,0.220047,0.000000,4.693316
LINE210,0.213108,-0.841221,0.000000,-0.717524,0.000000,1.432107
LINE211,0.000000,4.426486,0.000000,3.042361,0.000000,3.345281
LINE212,0.000000,3.372351,0.000000,-0.437084,2.752350,1.252491
LINE213,0.000000,2.634249,4.551936,3.347737,0.000000,1.427442
LINE214,7.330209,-0.841089,9.340199,3.347841,8.383491,1.252467
LINE215,0.217277,-0.841246,0.000000,3.653486,0.000000,4.632324
LINE216,0.000000,1.685608,0.405946,3.347559,0.000000,3.807753
LINE217,0.000000,-1.343230,0.000000,3.738655,0.221607,1.252520
LINE218,0.000000,0.000000,0.000000,0.000000,0.000000,4.669881
LINE219,0.213108,-0.841221,0.000000,-0.762936,0.000000,1.430269
LINE220,0.000000,4.137910,0.000000,3.452815,0.000000,2.820796
LINE221,0.000000,3.316361,0.000000,-0.438261,2.752350,1.252491
LINE222,0.000000,2.535862,4.551936,3.347737,0.000000,1.315937
LINE223,7.330209,-0.841089,9.340199,3.347841,8.383491,1.252467
LINE224,0.217277,-0.841246,0.000000,2.361940,0.000000,1.528822
LINE225,0.000000,1.159264,0.405946,3.347559,0.000000,3.665109
LINE226,0.000000,-0.494405,0.000000,3.946361,0.221607,1.252520
LINE227,0.213108,-0.841221,0.000000,-1.352316,0.000000,1.410281
LINE228,0.000000,3.757568,0.000000,3.876157,0.000000,3.140597
LINE229,0.000000,3.362510,0.000000,-0.403456,2.752350,1.252491
LINE230,0.000000,2.570070,4.551936,3.347737,0.000000,0.127997
LINE231,7.330209,-0.841089,9.340199,3.347841,8.383491,1.252467
LINE232,0.000000,0.033301,0.405946,3.347559,0.000000,1.593696
LINE233,0.000000,1.883033,0.000000,1.883033,0.000000,1.353586
LINE234,0.000000,0.148798,0.000000,4.020871,0.221607,1.252520
LINE235,0.213108,-0.841221,0.000000,4.131815,0.000000,1.505395
LINE236,0.000000,3.731277,0.000000,4.165185,0.000000,3.164451
LINE237,0.000000,3.595072,0.000000,-0.429685,2.752350,1.252491
LINE238,0.000000,2.623379,4.551936,3.347737,0.000000,-1.437451
LINE239,7.330209,-0.841089,9.340199,3.347841,8.383491,1.252467
LINE240,0.000000,0.262334,0.405946,3.347559,0.000000,1.613249
LINE241,0.000000,3.282933,0.000000,3.966324,0.221607,1.252520
LINE242,0.213108,-0.841221,0.000000,4.281602,0.000000,1.499046
LINE243,0.000000,4.661792,0.000000,4.101044,0.000000,2.704450
LINE244,0.000000,3.702836,0.000000,-0.502704,2.752350,1.252491
LINE245,0.000000,2.379443,4.551936,3.347737,0.000000,-1.425072
LINE246,7.330209,-0.841089,9.340199,3.347841,8.383491,1.252467
LINE247,0.000000,0.205773,0.200880,3.347559,0.000000,1.620932
LINE248,0.000000,0.291456,0.205065,3.347559,0.000000,4.673703
LINE249,0.000000,3.006550,0.000000,3.006550,0.221607,1.252520
LINE250,0.213108,-0.841221,0.000000,-0.545341,0.000000,1.430378
LINE251,0.000000,4.030844,0.000000,4.627401,0.000000,3.065297
LINE252,0.000000,3.621469,0.000000,-0.357924,2.752350,1.252491
LINE253,0.000000,2.282319,4.551936,3.347737,0.000000,-1.406158
LINE254,0.647824,-0.841193,0.000000,-0.023832,0.000000,4.683337
LINE255,6.682385,-0.841079,9.340199,3.347841,8.383491,1.252467
LINE256,0.000000,-0.837640,0.000000,3.391918,0.221607,1.252520
LINE257,0.213108,-0.841221,0.000000,-0.324239,0.000000,1.412183
LINE258,0.000000,3.832886,0.000000,3.736452,0.000000,3.358579
LINE259,0.000000,3.574646,0.000000,-0.371441,2.752350,1.252491
LINE260,0.000000,2.865176,4.551936,3.347737,0.000000,-1.340189
LINE261,0.647824,-0.841193,0.000000,-0.053731,0.000000,4.680487
LINE262,6.682385,-0.841079,9.340199,3.347841,8.383491,1.252467
LINE263,0.000000,3.119943,0.000000,-0.328195,0.221607,1.252520
LINE264,0.213108,-0.841221,0.000000,-0.368917,0.000000,4.513712
LINE265,0.000000,-1.560045,0.000000,3.450195,0.000000,3.169052
LINE266,0.000000,3.585600,0.000000,-0.364048,2.752350,1.252491
LINE267,0.000000,-0.409923,4.363517,3.347738,0.000000,1.770204
LINE268,0.000000,1.596582,0.188419,3.347706,0.000000,-1.260518
LINE269,0.647824,-0.841193,0.000000,-0.133740,0.000000,4.703770
LINE270,0.000000,3.336260,0.000000,4.005329,0.209168,1.252455
LINE271,6.682385,-0.841079,9.340199,3.347841,8.174323,1.252468
LINE272,0.213108,-0.841221,0.000000,-0.023186,0.000000,4.664426
LINE273,0.000000,-0.424108,0.000000,4.288334,0.000000,3.654802
LINE274,0.000000,3.348135,0.000000,-0.352077,2.752350,1.252491
LINE275,0.000000,-1.393742,4.363517,3.347738,0.000000,1.532004
LINE276,0.000000,2.558201,0.188419,3.347706,0.000000,-1.157702
LINE277,0.647824,-0.841193,0.000000,0.235285,0.000000,4.699052
LINE278,0.000000,3.285985,0.000000,3.877912,0.209168,1.252455
LINE279,6.682385,-0.841079,9.340199,3.347841,8.174323,1.252468
LINE280,0.213108,-0.841221,0.000000,0.156106,0.000000,1.435560
LINE281,0.000000,4.657305,0.000000,3.779900,0.000000,1.933689
LINE282,0.000000,3.292416,0.000000,-0.587096,2.752350,1.252491
LINE283,0.000000,4.206349,0.188419,3.347706,0.000000,1.538526
LINE284,0.647824,-0.841193,0.000000,0.242742,0.000000,4.698737
LINE285,0.000000,2.465977,0.000000,3.772213,0.209168,1.252455
LINE286,1.826822,-0.841043,4.651116,3.347823,1.179957,1.252367
LINE287,4.855564,-0.841092,4.689083,3.347859,6.994366,1.252485
LINE288,0.213108,-0.841221,0.000000,3.491308,0.000000,1.667048
LINE289,0.000000,2.477717,0.000000,1.398982,0.000000,2.371305
LINE290,0.000000,-1.482680,0.000000,0.113314,0.225870,1.252484
LINE291,0.000000,2.876466,0.000000,4.545523,2.526480,1.252492
LINE292,0.000000,2.200403,0.188419,3.347706,0.000000,1.420408
LINE293,0.647824,-0.841193,0.000000,0.236476,0.000000,-1.567645
LINE294,0.000000,-0.674307,0.000000,4.652342,0.209168,1.252455
LINE295,1.826822,-0.841043,4.651116,3.347823,1.179957,1.252367
LINE296,4.855564,-0.841092,4.689083,3.347859,6.994366,1.252485
LINE297,0.000000,2.967557,0.000000,-0.032746,0.225870,1.252484
LINE298,0.000000,3.462908,0.000000,3.680095,2.526480,1.252492
LINE299,0.000000,1.820027,0.188419,3.347706,0.000000,1.533919
LINE300,0.647824,-0.841193,0.000000,0.153716,0.000000,4.698797
LINE301,0.000000,0.057686,0.000000,-1.136977,0.209168,1.252455
LINE302,1.826822,-0.841043,4.651116,3.347823,1.179957,1.252367
LINE303,4.855564,-0.841092,4.689083,3.347859,6.994366,1.252485
LINE304,0.000000,2.837055,0.000000,-0.149741,0.225870,1.252484
LINE305,0.000000,4.502578,0.000000,3.576396,2.526480,1.252492
LINE306,0.000000,3.413123,0.188419,3.347706,0.000000,1.565559
LINE307,0.647824,-0.841193,0.000000,0.157573,0.000000,4.685767
LINE308,0.000000,3.976948,0.000000,-0.229230,0.209168,1.252455
LINE309,1.826822,-0.841043,4.651116,3.347823,1.179957,1.252367
LINE310,4.855564,-0.841092,4.689083,3.347859,6.994366,1.252485
LINE311,0.000000,2.633624,0.000000,0.091898,0.225870,1.252484
LINE312,0.000000,1.209948,0.000000,2.639316,2.526480,1.252492
LINE313,0.000000,2.643496,0.188419,3.347706,0.000000,4.637530
LINE314,0.647824,-0.841193,0.000000,0.212098,0.000000,4.710512
LINE315,0.000000,2.881318,0.000000,1.294831,0.209168,1.252455
LINE316,0.259136,-0.841159,0.000000,2.103494,0.000000,4.697153
LINE317,1.567686,-0.841024,4.651116,3.347823,1.179957,1.252367
LINE318,4.855564,-0.841092,4.689083,3.347859,6.994366,1.252485
LINE319,0.000000,-0.097511,0.000000,0.303523,0.225870,1.252484
LINE320,0.000000,0.104424,0.000000,3.484456,2.526480,1.252492
LINE321,0.647824,-0.841193,0.000000,0.286442,0.000000,4.712027
LINE322,0.000000,3.027611,0.000000,0.203128,0.209168,1.252455
LINE323,0.259136,-0.841159,0.000000,2.018807,0.000000,4.696535
LINE324,1.567686,-0.841024,4.651116,3.347823,1.179957,1.252367
LINE325,4.855564,-0.841092,4.689083,3.347859,6.994366,1.252485
LINE326,0.000000,2.431033,0.000000,2.431033,2.526480,1.252492
LINE327,0.647824,-0.841193,0.000000,0.153815,0.000000,4.696645
LINE328,0.000000,3.150543,0.000000,2.680153,0.209168,1.252455
LINE329,0.259136,-0.841159,0.000000,2.045213,0.000000,4.694261
LINE330,0.000000,3.816356,0.000000,1.021857,0.225914,1.252369
LINE331,1.567686,-0.841024,4.651116,3.347823,0.954042,1.252366
LINE332,4.855564,-0.841092,4.689083,3.347859,6.994366,1.252485
LINE333,0.647824,-0.841193,0.000000,0.175079,0.000000,4.684993
LINE334,0.000000,3.604551,0.000000,2.313805,0.209168,1.252455
LINE335,0.259136,-0.841159,0.000000,2.026959,0.000000,4.695463
LINE336,0.000000,3.054171,0.000000,2.707896,0.225914,1.252369
LINE337,0.000000,-0.449112,3.448505,3.347830,0.000000,1.641730
LINE338,1.567686,-0.841024,1.202610,3.347802,0.954042,1.252366
LINE339,4.855564,-0.841092,4.689083,3.347859,6.994366,1.252485
LINE340,0.647824,-0.841193,0.000000,0.131555,0.000000,4.673915
LINE341,0.000000,-0.382304,0.000000,1.781849,0.209168,1.252455
LINE342,0.142107,-0.841159,0.000000,3.913766,0.000000,1.571277
LINE343,0.117029,-0.841159,0.000000,2.111705,0.000000,4.693659
LINE344,0.000000,-0.449836,3.448505,3.347830,0.000000,1.641182
LINE345,1.567686,-0.841024,1.202610,3.347802,0.954042,1.252366
LINE346,4.855564,-0.841092,4.689083,3.347859,6.994366,1.252485
LINE347,0.647824,-0.841193,0.000000,0.105081,0.000000,4.691063
LINE348,0.142107,-0.841159,0.000000,4.611036,0.000000,4.696179
LINE349,0.117029,-0.841159,0.000000,2.474693,0.000000,4.701177
LINE350,0.000000,-0.430731,3.448505,3.347830,0.000000,1.644996
LINE351,1.567686,-0.841024,1.202610,3.347802,0.954042,1.252366
LINE352,4.855564,-0.841092,4.689083,3.347859,6.994366,1.252485
LINE353,0.647824,-0.841193,0.000000,-0.306008,0.000000,-1.507398
LINE354,0.117029,-0.841159,0.000000,3.073948,0.000000,4.687713
LINE355,0.000000,-0.400878,3.448505,3.347830,0.000000,1.638219
LINE356,1.567686,-0.841024,1.202610,3.347802,0.954042,1.252366
LINE357,4.855564,-0.841092,4.689083,3.347859,6.994366,1.252485
LINE358,0.647824,-0.841193,0.000000,4.505033,0.000000,4.629557
LINE359,0.117029,-0.841159,0.000000,3.026026,0.000000,4.686717
LINE360,0.000000,-0.068058,3.448505,3.347830,0.000000,1.558200
LINE361,1.567686,-0.841024,1.202610,3.347802,0.954042,1.252366
LINE362,4.855564,-0.841092,4.689083,3.347859,6.994366,1.252485
LINE363,0.647824,-0.841193,0.000000,0.093330,0.000000,-1.450932
LINE364,0.117029,-0.841159,0.000000,3.601744,0.000000,4.699505
LINE365,0.000000,3.069544,3.448505,3.347830,0.000000,0.971301
LINE366,1.567686,-0.841024,1.202610,3.347802,0.954042,1.252366
LINE367,4.855564,-0.841092,4.689083,3.347859,6.994366,1.252485
LINE368,0.647824,-0.841193,0.000000,4.252445,0.000000,1.589395
LINE369,0.117029,-0.841159,0.000000,-1.025933,0.000000,4.660706
LINE370,0.000000,2.402086,3.448505,3.347830,0.000000,-1.507521
LINE371,1.567686,-0.841024,1.202610,3.347802,0.954042,1.252366
LINE372,4.855564,-0.841092,4.689083,3.347859,6.994366,1.252485
LINE373,0.647824,-0.841193,0.000000,0.546329,0.000000,4.540428
LINE374,0.117029,-0.841159,0.000000,3.400794,0.000000,1.660429
LINE375,0.000000,2.689510,3.448505,3.347830,0.000000,-1.555294
LINE376,1.567686,-0.841024,1.202610,3.347802,0.954042,1.252366
LINE377,4.855564,-0.841092,4.689083,3.347859,4.885306,1.252477
LINE378,0.000000,2.585479,0.000000,-0.360940,2.109061,1.252503
LINE379,0.647824,-0.841193,0.000000,-0.674955,0.000000,3.268517
LINE380,0.117029,-0.841159,0.000000,1.867433,0.000000,4.631234
LINE381,0.000000,3.046699,3.448505,3.347830,0.000000,1.530209
LINE382,1.567686,-0.841024,1.202610,3.347802,0.954042,1.252366
LINE383,4.855564,-0.841092,4.689083,3.347859,4.885306,1.252477
LINE384,0.000000,-0.792943,0.000000,3.074237,2.109061,1.252503
LINE385,0.000000,2.537692,0.000000,-0.172164,0.000000,-1.558946
LINE386,0.647824,-0.841193,0.000000,0.978540,0.000000,4.686168
LINE387,0.117029,-0.841159,0.000000,3.101732,0.000000,-1.543559
LINE388,0.000000,3.793368,3.448505,3.347830,0.000000,-1.527911
LINE389,1.567686,-0.841024,1.202610,3.347802,0.954042,1.252366
LINE390,4.855564,-0.841092,4.689083,3.347859,4.885306,1.252477
LINE391,0.000000,-0.766466,0.000000,3.080690,2.109061,1.252503
LINE392,0.000000,2.546672,0.000000,-0.186161,0.000000,-1.556725
LINE393,0.000000,2.905219,3.448505,3.347830,0.000000,1.460412
LINE394,1.567686,-0.841024,1.202610,3.347802,0.954042,1.252366
LINE395,0.000000,-0.221347,0.000000,-0.531777,1.280424,1.252482
LINE396,4.855564,-0.841092,4.689083,3.347859,3.604882,1.252475
LINE397,0.000000,-0.808687,0.000000,2.976994,2.109061,1.252503
LINE398,0.000000,2.558909,0.000000,-0.150433,0.000000,-1.556667
LINE399,0.000000,3.195949,3.448505,3.347830,0.000000,4.694063
LINE400,1.567686,-0.841024,1.202610,3.347802,0.954042,1.252366
LINE401,0.000000,-0.238537,0.000000,-0.510190,1.280424,1.252482
LINE402,4.855564,-0.841092,4.689083,3.347859,3.604882,1.252475
LINE403,0.000000,-0.184724,0.000000,2.837010,2.109061,1.252503
LINE404,0.000000,2.366007,0.000000,-0.313814,0.000000,4.712303
LINE405,0.000000,2.371344,3.448505,3.347830,0.000000,1.725264
LINE406,1.567686,-0.841024,1.202610,3.347802,0.954042,1.252366
LINE407,0.000000,-0.243002,0.000000,-0.492225,1.280424,1.252482
LINE408,4.855564,-0.841092,4.689083,3.347859,3.604882,1.252475
LINE409,0.000000,-0.495784,0.000000,3.249396,0.000000,1.887477
LINE410,0.000000,2.172734,0.000000,2.452270,2.109061,1.252503
LINE411,0.000000,2.519945,0.000000,-0.314405,0.000000,-1.538648
LINE412,1.567686,-0.841024,1.202610,3.347802,0.954042,1.252366
LINE413,0.000000,-0.056689,0.000000,-0.363360,1.280424,1.252482
LINE414,4.855564,-0.841092,4.689083,3.347859,3.604882,1.252475
LINE415,0.000000,-0.516944,0.000000,3.205658,0.000000,1.894706
LINE416,0.000000,3.222781,0.000000,2.487593,2.109061,1.252503
LINE417,0.000000,1.964335,0.000000,-0.474396,0.000000,-1.516565
LINE418,1.567686,-0.841024,1.202610,3.347802,0.954042,1.252366
LINE419,0.000000,-0.071372,0.000000,-0.446162,1.280424,1.252482
LINE420,4.855564,-0.841092,4.689083,3.347859,3.604882,1.252475
LINE421,0.000000,-0.500083,0.000000,3.231519,0.000000,1.907647
LINE422,0.000000,2.819727,0.000000,2.376809,2.109061,1.252503
LINE423,0.000000,2.030581,0.000000,-0.564451,0.000000,-1.511339
LINE424,1.567686,-0.841024,1.202610,3.347802,0.954042,1.252366
LINE425,0.000000,4.093216,0.000000,1.512036,0.000000,1.343470
LINE426,0.000000,0.049466,0.000000,-0.407735,1.280424,1.252482
LINE427,4.855564,-0.841092,4.689083,3.347859,3.604882,1.252475
LINE428,0.000000,-0.463482,0.000000,3.455824,0.000000,2.045962
LINE429,0.000000,3.061716,0.000000,1.625846,2.109061,1.252503
LINE430,0.000000,2.028182,0.000000,-0.562504,0.000000,-1.504553
LINE431,1.567686,-0.841024,1.202610,3.347802,0.954042,1.252366
LINE432,0.000000,0.611014,0.000000,3.194499,0.000000,3.455960
LINE433,0.000000,-0.056060,0.000000,-0.386828,1.280424,1.252482
LINE434,4.855564,-0.841092,4.689083,3.347859,3.604882,1.252475
LINE435,0.000000,-0.354280,0.000000,3.480841,0.000000,2.336587
LINE436,0.000000,2.897432,0.000000,1.997686,2.109061,1.252503
LINE437,0.000000,1.690891,0.000000,-0.578275,0.000000,-1.514326
LINE438,1.567686,-0.841024,1.202610,3.347802,0.954042,1.252366
LINE439,0.000000,-0.839479,0.000000,3.776660,0.000000,3.515640
LINE440,0.000000,-0.031771,0.000000,-0.394064,1.280424,1.252482
LINE441,4.855564,-0.841092,4.689083,3.347859,3.604882,1.252475
LINE442,0.000000,-0.291997,0.000000,3.334061,0.000000,2.102125
LINE443,0.000000,2.966996,0.000000,0.719341,2.109061,1.252503
LINE444,0.000000,2.078186,0.000000,-0.645745,0.000000,-1.512217
LINE445,1.567686,-0.841024,1.202610,3.347802,0.954042,1.252366
LINE446,0.000000,4.044570,0.000000,3.035254,0.000000,1.886107
LINE447,0.000000,-0.023368,0.000000,-0.469366,1.280424,1.252482
LINE448,4.855564,-0.841092,4.689083,3.347859,3.604882,1.252475
LINE449,0.000000,-0.268509,0.000000,3.477728,0.000000,1.879959
LINE450,0.000000,0.141094,0.000000,0.141094,2.109061,1.252503
LINE451,0.000000,1.784329,0.000000,-0.532592,0.000000,-1.511173
LINE452,1.567686,-0.841024,1.202610,3.347802,0.954042,1.252366
LINE453,0.000000,0.613322,0.000000,-1.530140,0.000000,4.170411
LINE454,0.000000,-0.017989,0.000000,-0.479087,1.280424,1.252482
LINE455,4.855564,-0.841092,4.689083,3.347859,3.604882,1.252475
LINE456,0.000000,-0.189227,0.000000,3.604114,0.000000,1.856844
LINE457,0.000000,0.041114,0.000000,-0.622820,2.109061,1.252503
LINE458,0.000000,1.888020,0.000000,-0.371163,0.000000,-1.511710
LINE459,1.367039,-0.841021,1.202610,3.347802,0.954042,1.252366
LINE460,0.000000,-1.280306,0.000000,0.554449,0.000000,1.264143
LINE461,0.200647,-0.841048,0.000000,0.796554,0.000000,-1.442613
LINE462,0.000000,0.030140,0.000000,-0.426060,1.280424,1.252482
LINE463,4.855564,-0.841092,4.689083,3.347859,3.604882,1.252475
LINE464,0.000000,-0.378994,0.000000,3.690269,0.000000,1.698569
LINE465,0.000000,2.137182,0.000000,-0.477462,0.000000,-1.519813
LINE466,1.367039,-0.841021,1.202610,3.347802,0.954042,1.252366
LINE467,0.000000,-0.789165,0.000000,2.019400,0.000000,1.127310
LINE468,0.000000,-1.143253,0.000000,-1.143253,0.000000,2.593554
LINE469,0.200647,-0.841048,0.000000,0.769848,0.000000,-1.466177
LINE470,0.000000,0.028197,0.000000,-0.426819,1.280424,1.252482
LINE471,4.855564,-0.841092,4.689083,3.347859,3.604882,1.252475
LINE472,0.000000,-0.237911,0.000000,4.235747,0.000000,2.656066
LINE473,0.000000,1.845008,0.000000,-0.466089,0.000000,-1.516929
LINE474,1.367039,-0.841021,1.202610,3.347802,0.954042,1.252366
LINE475,0.000000,3.744917,0.000000,3.744917,0.000000,-1.543863
LINE476,0.200647,-0.841048,0.000000,0.779118,0.000000,-1.453903
LINE477,0.000000,0.097925,0.000000,-0.375611,1.280424,1.252482
LINE478,4.855564,-0.841092,4.689083,3.347859,3.604882,1.252475
LINE479,0.000000,-0.334634,0.000000,-0.204418,0.000000,4.316553
LINE480,0.000000,1.825085,0.000000,-0.427530,0.000000,-1.514497
LINE481,0.965725,-0.841015,1.202610,3.347802,0.954042,1.252366
LINE482,0.000000,0.917690,0.000000,-0.245129,0.000000,1.173398
LINE483,0.401314,-0.841034,0.000000,0.609924,0.000000,-1.566469
LINE484,0.200647,-0.841048,0.000000,0.845282,0.000000,-1.452542
LINE485,0.000000,-0.050780,0.000000,-0.464533,1.280424,1.252482
LINE486,4.855564,-0.841092,4.689083,3.347859,3.604882,1.252475
LINE487,0.000000,-0.365573,0.000000,-0.103343,0.000000,-1.291435
LINE488,0.000000,-0.509435,0.000000,-1.184669,0.000000,-1.375111
LINE489,0.965725,-0.841015,1.202610,3.347802,0.954042,1.252366
LINE490,0.000000,-0.660907,0.000000,2.633505,0.000000,4.509482
LINE491,0.179755,-0.841034,0.000000,0.617139,0.000000,-1.564578
LINE492,0.221559,-0.841034,0.000000,1.229022,0.000000,-1.379331
LINE493,0.200647,-0.841048,0.000000,0.964199,0.000000,-1.396170
LINE494,0.000000,0.204271,0.000000,-0.527417,1.280424,1.252482
LINE495,4.855564,-0.841092,4.689083,3.347859,3.604882,1.252475
LINE496,0.000000,-0.300074,0.000000,-0.055089,0.000000,-1.260526
LINE497,0.000000,1.752899,0.000000,-0.845713,0.000000,4.647239
LINE498,0.965725,-0.841015,1.202610,3.347802,0.954042,1.252366
LINE499,0.000000,2.705304,0.000000,1.797659,0.000000,1.524688
LINE500,0.179755,-0.841034,0.000000,0.711965,0.000000,4.695648
LINE501,0.221559,-0.841034,0.000000,0.584268,0.000000,1.491134
LINE502,0.200647,-0.841048,0.000000,0.974574,0.000000,-1.386710
LINE503,0.000000,0.585377,0.000000,-0.250064,1.280424,1.252482
LINE504,4.855564,-0.841092,4.689083,3.347859,3.604882,1.252475
LINE505,0.000000,-0.350633,0.000000,-0.015519,0.000000,-1.031247
LINE506,0.000000,-0.149575,0.000000,-0.149575,0.000000,3.066247
LINE507,0.965725,-0.841015,1.202610,3.347802,0.954042,1.252366
LINE508,0.000000,-0.595831,0.000000,0.804917,0.000000,4.061915
LINE509,0.179755,-0.841034,0.000000,0.434810,0.000000,-1.549597
LINE510,0.200647,-0.841048,0.000000,1.102373,0.000000,-1.074279
LINE511,0.000000,0.490204,0.000000,0.139472,1.280424,1.252482
LINE512,0.000000,-1.031031,0.762356,3.347722,0.000000,1.528951
LINE513,4.855564,-0.841092,3.926727,3.347886,3.604882,1.252475
LINE514,0.000000,-0.300935,0.000000,0.064023,0.000000,-1.224131
LINE515,0.000000,1.778392,1.202610,3.347802,0.954042,1.252366
LINE516,0.000000,2.939912,0.000000,2.939912,0.000000,-0.145406
LINE517,0.965725,-0.841015,0.000000,3.371288,0.000000,1.535458
LINE518,0.179755,-0.841034,0.000000,0.256057,0.000000,4.708155
LINE519,0.200647,-0.841048,0.000000,0.772878,0.000000,-1.264822
LINE520,0.000000,0.420133,0.000000,0.086754,1.280424,1.252482
LINE521,0.000000,-0.804817,0.762356,3.347722,0.000000,1.563101
LINE522,4.855564,-0.841092,3.926727,3.347886,3.604882,1.252475
LINE523,0.000000,-0.423089,0.000000,0.698678,0.000000,0.511373
LINE524,0.000000,1.794462,1.202610,3.347802,0.954042,1.252366
LINE525,0.000000,4.143507,0.000000,3.198193,0.000000,1.460748
LINE526,0.965725,-0.841015,0.000000,3.370809,0.000000,1.526844
LINE527,0.179755,-0.841034,0.000000,0.390407,0.000000,-1.507095
LINE528,0.200647,-0.841048,0.000000,1.304736,0.000000,1.223952
LINE529,0.000000,4.113484,0.000000,-1.366175,1.280424,1.252482
LINE530,4.855564,-0.841092,3.926727,3.347886,3.604882,1.252475
LINE531,0.000000,-0.240129,0.000000,-0.434815,0.000000,1.195622
LINE532,0.000000,1.869773,1.202610,3.347802,0.954042,1.252366
LINE533,0.000000,2.676064,0.000000,4.066536,0.000000,4.392996
LINE534,0.965725,-0.841015,0.000000,3.324341,0.000000,1.519553
LINE535,0.179755,-0.841034,0.000000,0.973771,0.000000,1.544537
LINE536,0.200647,-0.841048,0.000000,0.794445,0.000000,1.402291
LINE537,0.000000,3.673076,0.000000,-0.246569,1.046105,1.252483
LINE538,0.000000,3.349324,0.000000,-0.352312,0.234318,1.252473
LINE539,4.855564,-0.841092,3.926727,3.347886,3.604882,1.252475
LINE540,0.000000,-0.363118,0.000000,-0.262057,0.000000,-0.262972
LINE541,0.000000,1.810183,1.202610,3.347802,0.954042,1.252366
LINE542,0.000000,1.232732,0.000000,1.149705,0.000000,1.558656
LINE543,0.965725,-0.841015,0.000000,3.310891,0.000000,1.510122
LINE544,0.179755,-0.841034,0.000000,-0.440137,0.000000,1.559890
LINE545,0.200647,-0.841048,0.000000,0.821900,0.000000,1.422215
LINE546,0.000000,-0.736654,0.000000,3.430522,1.046105,1.252483
LINE547,4.855564,-0.841092,3.926727,3.347886,3.604882,1.252475
LINE548,0.000000,-0.465393,0.000000,-1.141810,0.000000,0.461691
LINE549,0.000000,1.858198,1.202610,3.347802,0.954042,1.252366
LINE550,0.000000,1.389052,0.000000,1.311042,0.000000,4.240981
LINE551,0.229932,-0.841018,0.000000,3.108864,0.000000,-0.965148
LINE552,0.735793,-0.841015,0.000000,0.979907,0.000000,-1.560558
LINE553,0.179755,-0.841034,0.000000,3.717699,0.000000,1.766878
LINE554,0.200647,-0.841048,0.000000,0.896570,0.000000,1.423345
LINE555,0.000000,4.679943,0.000000,-0.223717,1.046105,1.252483
LINE556,4.855564,-0.841092,3.926727,3.347886,3.604882,1.252475
LINE557,0.000000,-0.231747,0.000000,4.418793,0.000000,-0.215993
LINE558,0.000000,1.881725,1.202610,3.347802,0.954042,1.252366
LINE559,0.000000,-0.201681,0.000000,-0.201681,0.000000,2.996186
LINE560,0.229932,-0.841018,0.000000,2.912791,0.000000,0.222859
LINE561,0.735793,-0.841015,0.000000,2.793507,0.000000,1.496542
LINE562,0.179755,-0.841034,0.000000,2.840206,0.000000,2.828660
LINE563,0.200647,-0.841048,0.000000,1.328713,0.000000,1.200480
LINE564,4.855564,-0.841092,3.926727,3.347886,3.604882,1.252475
LINE565,0.000000,1.639139,0.000000,3.418406,0.000000,0.728707
LINE566,0.000000,1.589543,0.201123,3.347796,0.954042,1.252366
LINE567,0.000000,2.974196,0.000000,2.974196,0.000000,1.858620
LINE568,0.000000,2.516130,1.001487,3.347803,0.000000,-1.558420
LINE569,0.229932,-0.841018,0.000000,2.254786,0.000000,-0.197426
LINE570,0.200647,-0.841048,0.000000,1.697431,0.000000,0.574323
LINE571,4.855564,-0.841092,3.926727,3.347886,3.604882,1.252475
LINE572,0.000000,1.633697,0.201123,3.347796,0.954042,1.252366
LINE573,0.000000,-0.201681,0.000000,-0.201681,0.000000,2.996186
LINE574,0.000000,2.482062,1.001487,3.347803,0.000000,-1.563071
LINE575,0.229932,-0.841018,0.000000,-1.078706,0.000000,1.623651
LINE576,0.200647,-0.841048,0.000000,1.082399,0.000000,-1.486525
LINE577,4.855564,-0.841092,3.926727,3.347886,3.604882,1.252475
LINE578,0.000000,3.021705,0.201123,3.347796,0.954042,1.252366
LINE579,0.000000,1.874803,0.000000,1.874803,0.000000,-1.210515
LINE580,0.000000,1.494223,0.000000,2.766490,0.000000,-1.538858
LINE581,0.000000,2.673342,1.001487,3.347803,0.000000,-1.562879
LINE582,0.229932,-0.841018,0.000000,2.908316,0.000000,0.728775
LINE583,0.200647,-0.841048,0.000000,2.736460,0.000000,1.290031
LINE584,0.000000,-0.148549,0.192682,3.347714,0.000000,1.582426
LINE585,4.855564,-0.841092,3.734045,3.347895,3.604882,1.252475
LINE586,0.000000,3.142448,0.201123,3.347796,0.954042,1.252366
LINE587,0.000000,1.476057,0.000000,0.147440,0.000000,-0.727554
LINE588,0.000000,1.471760,0.000000,2.897237,0.000000,4.678894
LINE589,0.000000,2.439293,1.001487,3.347803,0.000000,-1.553747
LINE590,0.229932,-0.841018,0.000000,1.812955,0.000000,-1.518637
LINE591,0.200647,-0.841048,0.000000,2.847475,0.000000,-1.546397
LINE592,0.000000,-0.155682,0.192682,3.347714,0.000000,1.577009
LINE593,4.855564,-0.841092,3.734045,3.347895,3.604882,1.252475
LINE594,0.000000,2.975018,0.201123,3.347796,0.000000,1.535377
LINE595,0.000000,3.265337,0.000000,4.114371,0.954042,1.252366
LINE596,0.000000,1.552993,0.000000,2.667443,0.000000,4.689504
LINE597,0.000000,2.523824,1.001487,3.347803,0.000000,-1.556899
LINE598,0.229932,-0.841018,0.000000,-0.766606,0.000000,0.802050
LINE599,0.200647,-0.841048,0.000000,3.219683,0.000000,1.051099
LINE600,0.000000,-0.241284,0.192682,3.347714,0.000000,1.571453
LINE601,0.000000,3.497957,0.000000,0.109389,0.188300,1.252467
LINE602,4.855564,-0.841092,3.734045,3.347895,3.416582,1.252476
LINE603,0.000000,1.340918,0.201123,3.347796,0.000000,1.309916
LINE604,0.000000,3.483341,0.000000,0.168008,0.000000,-1.009032
LINE605,0.000000,-0.201681,0.000000,-0.201681,0.000000,2.996186
LINE606,0.000000,-0.210734,0.000000,0.111002,0.954042,1.252366
LINE607,0.000000,-0.539045,0.000000,2.532630,0.000000,1.824141
LINE608,0.000000,0.812948,0.000000,2.683922,0.000000,4.513559
LINE609,0.000000,2.503246,1.001487,3.347803,0.000000,-1.557682
LINE610,0.229932,-0.841018,0.000000,2.957657,0.000000,1.685651
LINE611,0.200647,-0.841048,0.000000,0.023869,0.000000,-1.518600
LINE612,0.000000,-0.252966,0.192682,3.347714,0.000000,1.560858
LINE613,0.000000,0.610445,0.000000,0.277630,0.188300,1.252467
LINE614,4.855564,-0.841092,3.734045,3.347895,3.416582,1.252476
LINE615,0.000000,-0.150660,0.201123,3.347796,0.000000,1.618809
LINE616,0.000000,-1.405172,0.000000,1.307787,0.000000,3.645353
LINE617,0.000000,1.835132,0.000000,1.532467,0.000000,0.834725
LINE618,0.000000,-0.894054,0.000000,-0.144620,0.954042,1.252366
LINE619,0.000000,1.348018,0.000000,2.138275,0.000000,4.253427
LINE620,0.000000,2.619111,1.001487,3.347803,0.000000,-1.559069
LINE621,0.200647,-0.841048,0.000000,4.181306,0.000000,-1.009157
LINE622,0.000000,-0.155894,0.192682,3.347714,0.000000,1.544577
LINE623,0.000000,-0.767954,0.226205,3.347702,0.000000,4.614716
LINE624,4.855564,-0.841092,3.507841,3.347907,3.416582,1.252476
LINE625,0.000000,-0.389269,0.201123,3.347796,0.000000,1.609034
LINE626,0.000000,0.840597,0.000000,2.443587,0.000000,3.748060
LINE627,0.000000,2.432593,1.001487,3.347803,0.000000,-1.561750
LINE628,0.200647,-0.841048,0.000000,1.215552,0.000000,1.575810
LINE629,0.000000,-0.373451,0.192682,3.347714,0.000000,1.529599
LINE630,0.000000,-1.068887,0.226205,3.347702,0.000000,4.609303
LINE631,4.855564,-0.841092,3.507841,3.347907,3.416582,1.252476
LINE632,0.000000,-0.852917,0.201123,3.347796,0.000000,1.631477
LINE633,0.000000,1.336472,0.000000,2.331981,0.000000,4.182671
LINE634,0.000000,2.367679,1.001487,3.347803,0.000000,-1.559843
LINE635,0.000000,-0.365994,0.192682,3.347714,0.000000,1.536983
LINE636,0.000000,-0.773444,0.226205,3.347702,0.000000,4.490692
LINE637,4.855564,-0.841092,3.507841,3.347907,3.416582,1.252476
LINE638,0.000000,0.000000,0.201123,3.347796,0.000000,-0.067519
LINE639,0.000000,1.500281,0.000000,2.661990,0.000000,4.265529
LINE640,0.000000,2.378206,1.001487,3.347803,0.000000,-1.563555
LINE641,0.000000,-0.310354,0.192682,3.347714,0.000000,1.534682
LINE642,0.000000,-0.463799,0.226205,3.347702,0.000000,4.542182
LINE643,4.855564,-0.841092,3.507841,3.347907,3.416582,1.252476
LINE644,0.000000,1.075044,0.000000,2.762774,0.000000,4.402238
LINE645,0.000000,2.478598,1.001487,3.347803,0.000000,-1.568082
LINE646,0.000000,-0.284982,0.192682,3.347714,0.000000,1.530970
LINE647,0.000000,-0.618216,0.226205,3.347702,0.000000,4.462031
LINE648,4.855564,-0.841092,3.507841,3.347907,3.416582,1.252476
LINE649,0.000000,1.703650,0.000000,1.195965,0.000000,4.391052
LINE650,0.000000,2.363358,1.001487,3.347803,0.000000,-1.562001
LINE651,0.000000,-0.302374,0.192682,3.347714,0.000000,1.532143
LINE652,0.000000,-0.732336,0.226205,3.347702,0.000000,3.876124
LINE653,4.855564,-0.841092,3.507841,3.347907,3.416582,1.252476
LINE654,0.000000,1.730267,0.000000,1.088118,0.000000,3.282009
LINE655,0.000000,0.259380,0.821306,3.347804,0.000000,4.700849
LINE656,0.000000,3.836280,0.180181,3.347799,0.000000,-1.176807
LINE657,0.000000,-0.358606,0.192682,3.347714,0.000000,1.535201
LINE658,0.000000,-0.910630,0.226205,3.347702,0.000000,4.537820
LINE659,4.855564,-0.841092,3.507841,3.347907,3.416582,1.252476
LINE660,0.000000,1.114453,0.000000,3.677306,0.000000,2.230306
LINE661,0.000000,-0.802311,0.821306,3.347804,0.000000,-1.565651
LINE662,0.000000,3.873246,0.180181,3.347799,0.000000,-1.319517
LINE663,0.000000,-0.343730,0.192682,3.347714,0.000000,1.549752
LINE664,0.000000,-0.588532,0.226205,3.347702,0.000000,4.374917
LINE665,4.855564,-0.841092,3.507841,3.347907,3.416582,1.252476
LINE666,0.000000,1.373118,0.000000,4.607196,0.000000,1.794378
LINE667,0.000000,-0.342430,0.821306,3.347804,0.000000,1.050041
LINE668,0.000000,1.395129,0.180181,3.347799,0.000000,1.456470
LINE669,0.000000,-0.354503,0.192682,3.347714,0.000000,1.543173
LINE670,0.000000,4.671849,0.226205,3.347702,0.000000,4.543023
LINE671,3.948298,-0.841069,0.000000,2.869582,0.000000,4.709216
LINE672,0.907266,-0.841189,3.507841,3.347907,3.416582,1.252476
LINE673,0.000000,0.482262,0.000000,3.106275,0.000000,2.459280
LINE674,0.000000,3.781877,0.821306,3.347804,0.000000,-1.423713
LINE675,0.000000,2.842197,0.180181,3.347799,0.000000,1.945686
LINE676,0.000000,-0.356684,0.192682,3.347714,0.000000,1.551803
LINE677,0.000000,-0.411823,0.226205,3.347702,0.000000,1.661272
LINE678,3.948298,-0.841069,0.000000,2.532966,0.000000,4.708132
LINE679,0.907266,-0.841189,3.507841,3.347907,3.416582,1.252476
LINE680,0.000000,1.180009,0.000000,-1.472709,0.000000,2.166004
LINE681,0.000000,3.756978,0.821306,3.347804,0.000000,4.046449
LINE682,0.000000,-0.390881,0.192682,3.347714,0.000000,1.534131
LINE683,0.000000,0.085223,0.226205,3.347702,0.000000,1.587399
LINE684,3.948298,-0.841069,0.000000,3.076541,0.000000,4.711360
LINE685,0.907266,-0.841189,3.507841,3.347907,3.416582,1.252476
LINE686,0.000000,-0.443062,0.192682,3.347714,0.000000,1.529469
LINE687,0.000000,0.832184,0.226205,3.347702,0.000000,1.504640
LINE688,3.948298,-0.841069,0.000000,3.134856,0.000000,-1.565828
LINE689,0.000000,-1.294398,0.000000,2.808609,0.414301,1.252466
LINE690,0.907266,-0.841189,3.507841,3.347907,3.002281,1.252477
LINE691,0.000000,-0.443651,0.192682,3.347714,0.000000,1.532761
LINE692,3.948298,-0.841069,0.000000,3.291054,0.000000,-1.540944
LINE693,0.000000,-1.276673,0.000000,2.777510,0.205058,1.252466
LINE694,0.000000,-0.997488,0.000000,3.889387,0.209243,1.252466
LINE695,0.000000,3.684394,0.121492,3.347745,0.000000,-0.426123
LINE696,0.907266,-0.841189,3.386348,3.347913,3.002281,1.252477
LINE697,0.000000,-0.463518,0.192682,3.347714,0.000000,1.532721
LINE698,3.948298,-0.841069,0.000000,3.355157,0.000000,-1.553891
LINE699,0.000000,-1.290040,0.000000,2.740877,0.205058,1.252466
LINE700,0.000000,-0.620142,0.000000,0.460639,0.209243,1.252466
LINE701,0.000000,2.808292,0.121492,3.347745,0.000000,-1.569692
LINE702,0.907266,-0.841189,3.386348,3.347913,3.002281,1.252477
LINE703,0.000000,-0.471482,0.192682,3.347714,0.000000,1.535605
LINE704,3.948298,-0.841069,0.000000,2.196025,0.000000,-1.543652
LINE705,0.000000,-1.177268,0.000000,2.805552,0.205058,1.252466
LINE706,0.907266,-0.841189,3.386348,3.347913,3.002281,1.252477
LINE707,0.000000,1.745772,0.000000,1.100976,0.000000,-1.202403
LINE708,0.000000,-0.473763,0.192682,3.347714,0.000000,1.533857
LINE709,3.948298,-0.841069,0.000000,2.439255,0.000000,-1.545794
LINE710,0.000000,-1.217984,0.000000,2.905009,0.205058,1.252466
LINE711,0.480804,-0.841215,3.386348,3.347913,3.002281,1.252477
LINE712,0.426462,-0.841160,0.000000,-0.260985,0.000000,-1.518130
LINE713,0.000000,2.055617,0.000000,0.961035,0.000000,-1.410003
LINE714,0.000000,-0.448420,0.192682,3.347714,0.000000,1.538018
LINE715,3.948298,-0.841069,0.000000,2.470531,0.000000,-1.546777
LINE716,0.000000,-1.529820,0.000000,2.769279,0.205058,1.252466
LINE717,0.480804,-0.841215,3.386348,3.347913,3.002281,1.252477
LINE718,0.426462,-0.841160,0.000000,-0.293195,0.000000,-1.524616
LINE719,0.000000,1.843890,0.000000,1.050325,0.000000,-1.397371
LINE720,0.000000,-0.444735,0.192682,3.347714,0.000000,1.526246
LINE721,3.948298,-0.841069,0.000000,2.456367,0.000000,-1.546968
LINE722,0.000000,4.015020,0.000000,2.490536,0.205058,1.252466
LINE723,0.480804,-0.841215,0.406460,3.347906,3.002281,1.252477
LINE724,0.000000,-1.025821,2.979889,3.347914,0.000000,1.598168
LINE725,0.426462,-0.841160,0.000000,-0.252746,0.000000,-1.464048
LINE726,0.000000,1.929849,0.000000,1.015985,0.000000,-1.410385
LINE727,0.000000,-0.620171,0.192682,3.347714,0.000000,1.537401
LINE728,3.948298,-0.841069,0.000000,2.466730,0.000000,-1.551774
LINE729,0.000000,4.527249,0.000000,2.576796,0.205058,1.252466
LINE730,0.480804,-0.841215,0.406460,3.347906,3.002281,1.252477
LINE731,0.000000,-1.041661,2.979889,3.347914,0.000000,1.598670
LINE732,0.426462,-0.841160,0.000000,-0.288842,0.000000,1.217480
LINE733,0.000000,2.071744,0.000000,0.815890,0.000000,-1.329303
LINE734,0.000000,-0.634430,0.192682,3.347714,0.000000,1.551749
LINE735,3.948298,-0.841069,0.000000,2.395111,0.000000,-1.551055
LINE736,0.000000,-1.054176,0.000000,2.460366,0.205058,1.252466
LINE737,0.480804,-0.841215,0.406460,3.347906,3.002281,1.252477
LINE738,0.000000,-1.005964,2.979889,3.347914,0.000000,1.598741
LINE739,0.426462,-0.841160,0.000000,-0.329359,0.000000,-1.310681
LINE740,0.000000,2.328059,0.000000,0.543899,0.000000,-1.402226
LINE741,0.000000,-0.727687,0.192682,3.347714,0.000000,1.536962
LINE742,3.948298,-0.841069,0.000000,1.860632,0.000000,-1.548679
LINE743,0.000000,-1.106430,0.000000,3.289728,0.205058,1.252466
LINE744,0.480804,-0.841215,0.406460,3.347906,3.002281,1.252477
LINE745,0.000000,-0.989157,2.753584,3.347916,0.000000,1.665274
LINE746,0.000000,-1.156088,0.226304,3.347896,0.000000,1.579463
LINE747,0.426462,-0.841160,0.000000,-0.226926,0.000000,0.972758
LINE748,0.000000,2.538319,0.000000,0.654641,0.000000,-1.351510
LINE749,0.000000,-0.611768,0.192682,3.347714,0.000000,1.510186
LINE750,3.948298,-0.841069,0.000000,1.320814,0.000000,-1.549724
LINE751,0.000000,3.666652,0.000000,4.344730,0.205058,1.252466
LINE752,0.480804,-0.841215,0.406460,3.347906,0.000000,4.693003
LINE753,0.000000,-0.517854,0.000000,3.473477,3.002281,1.252477
LINE754,0.000000,-1.476169,2.753584,3.347916,0.000000,1.651898
LINE755,0.000000,-1.476823,0.226304,3.347896,0.000000,1.568229
LINE756,0.426462,-0.841160,0.000000,-0.311523,0.000000,1.488717
LINE757,0.000000,2.694854,0.000000,0.612742,0.000000,-1.310189
LINE758,0.000000,-0.116498,0.192682,3.347714,0.000000,1.540942
LINE759,3.948298,-0.841069,0.000000,1.414718,0.000000,-1.547994
LINE760,0.000000,0.935414,0.000000,2.678062,0.205058,1.252466
LINE761,0.480804,-0.841215,0.406460,3.347906,0.000000,4.709088
LINE762,0.000000,-0.518652,0.000000,3.471201,3.002281,1.252477
LINE763,0.000000,4.116415,0.226304,3.347896,0.000000,1.568994
LINE764,0.426462,-0.841160,0.000000,-0.313445,0.000000,1.546137
LINE765,0.000000,2.575053,0.000000,0.603120,0.000000,-1.311909
LINE766,0.000000,2.226398,0.192682,3.347714,0.000000,1.556279
LINE767,3.948298,-0.841069,0.000000,0.920198,0.000000,-1.554730
LINE768,0.000000,3.273081,0.000000,3.273081,0.205058,1.252466
LINE769,0.480804,-0.841215,0.406460,3.347906,0.000000,-1.563114
LINE770,0.000000,-0.791801,0.000000,3.231994,1.704240,1.252479
LINE771,0.000000,-0.364426,0.000000,3.538504,1.298041,1.252474
LINE772,0.000000,3.499330,0.226304,3.347896,0.000000,1.315627
LINE773,0.426462,-0.841160,0.000000,-0.445501,0.000000,1.539565
LINE774,0.000000,2.657893,0.000000,0.541373,0.000000,-1.307643
LINE775,0.000000,0.517983,0.192682,3.347714,0.000000,1.653831
LINE776,3.948298,-0.841069,0.000000,1.535637,0.000000,-1.528260
LINE777,0.000000,2.703745,0.000000,2.703745,0.205058,1.252466
LINE778,0.480804,-0.841215,0.406460,3.347906,0.000000,-1.561475
LINE779,0.000000,-0.987510,0.000000,0.064268,1.704240,1.252479
LINE780,0.000000,-0.530754,0.000000,3.598067,1.298041,1.252474
LINE781,0.000000,3.516940,0.226304,3.347896,0.000000,-1.226728
LINE782,0.426462,-0.841160,0.000000,-0.462093,0.000000,1.546464
LINE783,0.000000,2.683427,0.000000,0.713405,0.000000,-1.452844
LINE784,0.000000,-0.981479,0.192682,3.347714,0.000000,1.552078
LINE785,3.948298,-0.841069,0.000000,1.921787,0.000000,-1.535104
LINE786,0.480804,-0.841215,0.406460,3.347906,0.000000,-1.559651
LINE787,0.000000,-0.525114,0.000000,3.565943,1.298041,1.252474
LINE788,0.000000,-0.943844,0.226304,3.347896,0.000000,-1.407096
LINE789,0.426462,-0.841160,0.000000,-0.508316,0.000000,1.535616
LINE790,0.000000,0.838358,0.000000,1.303515,0.000000,4.702053
LINE791,2.496993,-0.841067,0.000000,2.192260,0.000000,-1.547703
LINE792,1.451304,-0.841075,0.000000,-0.562957,0.000000,1.487376
LINE793,0.480804,-0.841215,0.406460,3.347906,0.000000,-1.565412
LINE794,0.000000,-0.353593,0.000000,3.648890,1.298041,1.252474
LINE795,0.000000,-1.092135,0.226304,3.347896,0.000000,-1.453548
LINE796,0.426462,-0.841160,0.000000,-0.489139,0.000000,1.544233
LINE797,0.000000,0.940451,0.000000,1.866196,0.000000,-1.486830
LINE798,2.496993,-0.841067,0.000000,1.661270,0.000000,-1.560594
LINE799,1.451304,-0.841075,0.000000,-0.805738,0.000000,1.477612
LINE800,0.480804,-0.841215,0.000000,0.117696,0.000000,0.524682
LINE801,0.000000,3.568967,0.406460,3.347906,0.000000,4.660620
LINE802,0.000000,-0.398181,0.000000,3.827109,1.298041,1.252474
LINE803,0.000000,4.148677,0.226304,3.347896,0.000000,-1.501288
LINE804,0.426462,-0.841160,0.000000,-0.588949,0.000000,1.562338
LINE805,0.000000,0.603767,0.000000,1.052293,0.000000,-1.416417
LINE806,2.496993,-0.841067,0.000000,2.676209,0.000000,-1.566372
LINE807,1.451304,-0.841075,0.000000,0.130982,0.000000,1.393346
LINE808,0.480804,-0.841215,0.000000,0.143395,0.000000,-1.193566
LINE809,0.000000,3.518337,0.406460,3.347906,0.000000,4.698519
LINE810,0.000000,4.589565,0.000000,4.589565,0.000000,1.361141
LINE811,0.000000,0.316631,0.000000,4.169787,1.298041,1.252474
LINE812,0.000000,-0.337067,0.226304,3.347896,0.000000,4.567709
LINE813,0.426462,-0.841160,0.000000,-0.722237,0.000000,2.596652
LINE814,0.000000,0.628246,0.000000,1.215074,0.000000,-0.032846
LINE815,2.496993,-0.841067,0.000000,0.298151,0.000000,4.708199
LINE816,1.451304,-0.841075,0.000000,0.830790,0.000000,1.592044
LINE817,0.480804,-0.841215,0.000000,0.198582,0.000000,-1.447906
LINE818,0.000000,3.463414,0.406460,3.347906,0.000000,4.684309
LINE819,0.000000,-0.201213,0.000000,1.237875,0.000000,1.616158
LINE820,0.000000,-0.181272,0.000000,3.547111,1.298041,1.252474
LINE821,0.426462,-0.841160,0.000000,-0.761618,0.000000,2.611034
LINE822,0.000000,0.221300,0.000000,4.544257,0.000000,0.652615
LINE823,2.496993,-0.841067,0.000000,3.549281,0.000000,-1.554052
LINE824,0.480804,-0.841215,0.000000,0.403369,0.000000,-1.485530
LINE825,0.000000,3.425257,0.406460,3.347906,0.000000,4.689611
LINE826,0.000000,0.605699,0.000000,2.071983,0.000000,-1.125120
LINE827,0.000000,0.136481,0.000000,3.577141,1.298041,1.252474
LINE828,0.426462,-0.841160,0.000000,-0.782598,0.000000,4.254717
LINE829,0.000000,0.277081,0.000000,3.457994,0.000000,1.445901
LINE830,2.496993,-0.841067,0.000000,2.603204,0.000000,4.691370
LINE831,0.480804,-0.841215,0.000000,0.340380,0.000000,-1.548367
LINE832,0.000000,3.406055,0.406460,3.347906,0.000000,4.649450
LINE833,0.000000,3.211000,0.000000,0.885324,0.000000,-0.705599
LINE834,0.000000,3.950960,0.000000,3.439771,1.298041,1.252474
LINE835,0.426462,-0.841160,0.000000,-0.919197,0.000000,4.421799
LINE836,2.496993,-0.841067,0.000000,3.141194,0.000000,4.648611
LINE837,0.480804,-0.841215,0.000000,0.558059,0.000000,-1.527363
LINE838,0.000000,3.377543,0.406460,3.347906,0.000000,4.697742
LINE839,0.000000,-0.624617,0.000000,3.613558,0.000000,1.214838
LINE840,0.426462,-0.841160,0.000000,-0.936146,0.000000,4.430754
LINE841,2.496993,-0.841067,0.000000,2.673979,0.000000,4.515651
LINE842,0.480804,-0.841215,0.000000,0.418979,0.000000,-1.561416
LINE843,0.000000,3.775797,0.406460,3.347906,0.000000,-1.476593
LINE844,0.000000,1.641128,0.000000,0.711680,0.000000,4.708952
LINE845,0.000000,2.613535,0.000000,0.458133,0.000000,3.877131
LINE846,0.426462,-0.841160,0.000000,-0.991980,0.000000,4.561847
LINE847,2.496993,-0.841067,0.000000,3.280141,0.000000,1.636249
LINE848,0.480804,-0.841215,0.000000,0.630582,0.000000,-1.551668
LINE849,0.000000,3.816021,0.406460,3.347906,0.000000,-1.423656
LINE850,0.000000,1.397964,0.000000,0.763839,0.000000,4.658750
LINE851,0.000000,2.939912,0.000000,2.939912,0.000000,-0.145406
LINE852,0.426462,-0.841160,0.000000,-0.644620,0.000000,4.657930
LINE853,2.496993,-0.841067,0.000000,-1.310757,0.000000,1.777805
LINE854,0.480804,-0.841215,0.000000,0.478678,0.000000,-1.569113
LINE855,0.000000,3.843601,0.406460,3.347906,0.000000,-1.436666
LINE856,0.000000,1.688705,0.000000,0.850747,0.000000,4.668232
LINE857,0.000000,4.595621,0.000000,4.595621,0.000000,-1.439964
LINE858,0.426462,-0.841160,0.000000,-1.290731,0.000000,1.982240
LINE859,0.221661,-0.841083,0.000000,3.468827,0.000000,4.631579
LINE860,2.275332,-0.841065,0.000000,0.957072,0.000000,1.487361
LINE861,0.480804,-0.841215,0.000000,0.485617,0.000000,-1.563570
LINE862,0.000000,3.846140,0.406460,3.347906,0.000000,-1.455563
LINE863,0.000000,1.826651,0.000000,0.821074,0.000000,4.592557
LINE864,0.000000,0.584473,0.000000,2.699928,0.000000,-1.558294
LINE865,0.426462,-0.841160,0.000000,3.732798,0.000000,1.617106
LINE866,0.480804,-0.841215,0.000000,0.488470,0.000000,-1.562403
LINE867,0.000000,3.970129,0.406460,3.347906,0.000000,-1.471900
LINE868,0.000000,1.997280,0.000000,0.621826,0.000000,4.522353
LINE869,0.000000,1.358729,0.000000,1.358729,0.000000,1.961416
LINE870,0.426462,-0.841160,0.000000,2.257637,0.000000,1.667276
LINE871,0.480804,-0.841215,0.000000,0.499558,0.000000,-1.560428
LINE872,0.000000,3.537722,0.209516,3.347906,0.000000,-1.457688
LINE873,0.000000,3.537722,0.196944,3.347905,0.000000,-1.537099
LINE874,0.000000,1.659503,0.000000,0.583530,0.000000,4.498195
LINE875,0.000000,2.939912,0.000000,2.939912,0.000000,-0.145406
LINE876,0.426462,-0.841160,0.000000,4.675167,0.000000,1.661301
LINE877,0.480804,-0.841215,0.000000,0.499216,0.000000,-1.559609
LINE878,0.000000,4.644870,0.209516,3.347906,0.000000,3.074074
LINE879,0.000000,3.074074,0.196944,3.347905,0.000000,1.648728
LINE880,0.000000,-0.201681,0.000000,-0.201681,0.000000,2.996186
LINE881,0.000000,-0.201681,0.000000,-0.201681,0.000000,2.996186
LINE882,0.426462,-0.841160,0.000000,0.026111,0.000000,1.744785
LINE883,0.480804,-0.841215,0.000000,0.528911,0.000000,-1.569651
LINE884,0.000000,3.074074,0.209516,3.347906,0.000000,-0.067519
LINE885,0.000000,0.000000,0.196944,3.347905,0.000000,-0.067519
LINE886,0.426462,-0.841160,0.000000,0.121763,0.000000,1.513905
LINE887,0.250855,-0.841214,0.000000,0.540282,0.000000,4.705754
LINE888,0.229950,-0.841215,0.000000,3.401054,0.000000,0.904692
LINE889,0.000000,4.644870,0.209516,3.347906,0.000000,-0.067519
LINE890,0.426462,-0.841160,0.000000,4.282508,0.000000,1.923992
LINE891,0.250855,-0.841214,0.000000,0.527708,0.000000,4.706844
LINE892,0.229950,-0.841215,0.000000,-1.449888,0.000000,-1.460809
LINE893,0.000000,1.503278,0.209516,3.347906,0.000000,-0.067519
LINE894,0.225774,-0.841159,0.000000,0.032382,0.000000,1.612956
LINE895,0.200687,-0.841161,0.000000,0.381440,0.000000,1.520014
LINE896,0.250855,-0.841214,0.000000,0.522205,0.000000,4.688218
LINE897,0.229950,-0.841215,0.000000,2.916303,0.000000,-1.540908
LINE898,0.000000,0.000000,0.209516,3.347906,0.000000,-0.067519
LINE899,0.225774,-0.841159,0.000000,0.223701,0.000000,4.105739
LINE900,0.250855,-0.841214,0.000000,0.082734,0.000000,-1.563688
LINE901,0.250855,-0.841214,0.000000,-0.008884,0.000000,-1.409250
LINE902,0.250855,-0.841214,0.000000,-0.221855,0.000000,1.587276
LINE903,0.250855,-0.841214,0.000000,3.031222,0.000000,1.719693
LINE904,0.250855,-0.841214,0.000000,3.695524,0.000000,4.247064
LINE905,0.250855,-0.841214,0.000000,3.140307,0.000000,-1.008430
